   7
  -301.65598691167219     
 C    -0.13649606    -0.00493194     0.05433174
 C    -0.11085592    -0.00924474     1.55751768
 O     1.21242768     0.01177486     0.02076692
 O    -0.88614577    -0.01149811    -0.83136904
 O     1.30543928     0.00869296     1.43374199
 H    -0.47892070    -0.91162971     2.02591742
 H    -0.50118381     0.88073368     2.03158599
